Circuit: * C:\Users\KF5RCL\Desktop\MyStuff\Projects\GuitarFX\FilterFrontEnd\Simulation\MultipleFeedback\Order4\MultiFeedbackOrder4.asc

Direct Newton iteration for .op point succeeded.

Date: Fri Jun 26 02:02:28 2015
Total elapsed time: 0.613 seconds.

tnom = 27
temp = 27
method = trap
totiter = 36
traniter = 0
tranpoints = 0
accept = 0
rejected = 0
matrix size = 18
fillins = 17
solver = Normal
Matrix Compiler1:     108 opcodes
Matrix Compiler2:     158 opcodes

