Circuit: * C:\Users\KF5RCL\Desktop\MyStuff\Projects\GuitarFX\FilterFrontEnd\Simulation\SallenAndKey\Order2\SallenAndKeyOrder2.asc

Direct Newton iteration failed to find .op point.  (Use ".option noopiter" to skip.)
Starting Gmin stepping
Gmin = 10
Gmin = 1.07374
Gmin = 0.115292
Gmin = 0.0123794
Gmin = 0.00132923
Gmin = 0.000142725
Gmin = 1.5325e-005
Gmin = 1.6455e-006
Gmin = 1.76685e-007
Gmin = 1.89714e-008
Gmin = 2.03704e-009
Gmin = 2.18725e-010
Gmin = 2.34854e-011
Gmin = 2.52173e-012
Gmin = 2.70769e-013
Gmin = 0
Gmin stepping succeeded in finding the operating point.


Date: Fri Jun 12 02:40:55 2015
Total elapsed time: 0.409 seconds.

tnom = 27
temp = 27
method = trap
totiter = 581
traniter = 0
tranpoints = 0
accept = 0
rejected = 0
matrix size = 13
fillins = 9
solver = Normal
Matrix Compiler1:      61 opcodes
Matrix Compiler2:     104 opcodes  0.2/[0.2]/0.6


