Circuit: * C:\Users\KF5RCL\Desktop\MyStuff\Projects\GuitarFX\FilterFrontEnd\MultiFeedSchem.asc

Direct Newton iteration for .op point succeeded.

Date: Fri May 22 08:00:01 2015
Total elapsed time: 0.088 seconds.

tnom = 27
temp = 27
method = trap
totiter = 36
traniter = 0
tranpoints = 0
accept = 0
rejected = 0
matrix size = 12
fillins = 3
solver = Normal
Matrix Compiler1:      41 opcodes
Matrix Compiler2:      87 opcodes

