Circuit: * C:\Users\KF5RCL\Desktop\MyStuff\Projects\GuitarFX\FilterFrontEnd\Simulation\PassiveSchem.asc


Date: Fri May 22 11:08:05 2015
Total elapsed time: 0.123 seconds.

tnom = 27
temp = 27
method = trap
totiter = 0
traniter = 0
tranpoints = 0
accept = 0
rejected = 0
matrix size = 4
fillins = 1
solver = Normal

